This is a new file.

new line.

change made in new_branch.